/*--------------------------------*- C++ -*----------------------------------*    | =========                 |                                                 |
  | \      /  F ield         | OpenFOAM: The Open Source CFD Toolbox           |
  |  \    /   O peration     | Version:  v2006                                 |
  |   \  /    A nd           | Website:  www.openfoam.com                      |
  |    \/     M anipulation  |                                                 |
  \*---------------------------------------------------------------------------*/
FoamFile
    {
      version     2.0;
        format      ascii;
        class       dictionary;
        location    "system";
object      controlDict;
}
// * * * * * * * * * * * * * * * * * * * * * * * * * * * * * * * * * * * * * //
    
application     simpleFoam;
    
startFrom       latestTime;
    
startTime 0;
stopAt          endTime;
//stopAt          writeNow;
    
//endTime         2000;
endTime 5000.0;
    
deltaT          1;
    
writeControl    timeStep;
    
writeInterval   1;
    
purgeWrite      0;
    
writeFormat     ascii;
    
writePrecision  12;
    
writeCompression on;
    
timeFormat      general;
    
timePrecision   12;
    
runTimeModifiable true;

//================================================================================
radFields_DO (Kp gasKp absRad emiRad shRad sootKp);
initFields_DO (rho);
radFields_WW (qabsRad qemRad qnetRad emissivity);

//--------------------------------------------------------------------------------
functions
{
  #include "postDict"
}

    
