/*--------------------------------*- C++ -*----------------------------------*\
| =========                 |                                                 |
| \\      /  F ield         | OpenFOAM: The Open Source CFD Toolbox           |
|  \\    /   O peration     | Version:  v2006                                 |
|   \\  /    A nd           | Website:  www.openfoam.com                      |
|    \\/     M anipulation  |                                                 |
\*---------------------------------------------------------------------------*/
FoamFile
{
    version     2.0;
    format      ascii;
    class       dictionary;
    location    "system";
    object      fvSchemes;
}
// * * * * * * * * * * * * * * * * * * * * * * * * * * * * * * * * * * * * * //

ddtSchemes
{
   //default         Euler;
   default         backward;
   ddt(phi)        backward;
}

gradSchemes
{
    default         Gauss linear;
}

divSchemes
{
    default         none;
    //div(phi,U)      Gauss upwind;
    //div(phi,U)      Gauss LUST grad(U);
    div(phi,U)      Gauss filteredLinear2V 0.25  0.5;
    //div(phi,U)      Gauss filteredLinear2 0.1 0.5;
    //div(phi,U)      Gauss linear;
    div(phi,k)      Gauss limitedLinear 1;
    div(phi,K)      Gauss limitedLinear 0.25;
    div(phi,Yi_h) Gauss multivariateSelection
    {
        O2              limitedLinear 0.25;
        N2              limitedLinear 0.25;
        CH4             limitedLinear 0.25;
        C2H4            limitedLinear 0.25;
        C3H8            limitedLinear 0.25;
        CORRUGATED      limitedLinear 0.25;
        CH2O            limitedLinear 0.25;
        H2O             limitedLinear 0.25;
        CO2             limitedLinear 0.25;
        h               limitedLinear 0.5;
    };

    div(((rho*nuEff)*dev2(T(grad(U))))) Gauss linear;
    div(phiU,p)     Gauss linear;
    //div(Ji,Ii_h)    Gauss upwind;
    div(Ji,Ii_h)    Gauss linearUpwind grad(Ii_h);

}

laplacianSchemes
{
    default         Gauss linear corrected;
}

interpolationSchemes
{
    default         linear;
}

snGradSchemes
{
    default         corrected;
}


// ************************************************************************* //
