/*--------------------------------*- C++ -*----------------------------------*\
| =========                 |                                                 |
| \\      /  F ield         | OpenFOAM: The Open Source CFD Toolbox           |
|  \\    /   O peration     | Version:  v2006                                 |
|   \\  /    A nd           | Website:  www.openfoam.com                      |
|    \\/     M anipulation  |                                                 |
\*---------------------------------------------------------------------------*/
FoamFile
{
    version     2.0;
    format      ascii;
    class       dictionary;
    location    "system";
    object      fvSolution;
}

// * * * * * * * * * * * * * * * * * * * * * * * * * * * * * * * * * * * * * //

solvers
{
    rho
    {
        solver          PCG;
        preconditioner  DIC;
        tolerance       0;
        relTol          0.1;
    };

    rhoFinal
    {
        $rho;
        relTol          0;
    };

    p_rgh
    {
        solver              GAMG;
        tolerance           1e-7;
        relTol              0.001;
        smoother            GaussSeidel;
    };

    p_rghFinal
    {
        solver              GAMG;
        relTol              0;
        tolerance           1e-8;
        smoother            GaussSeidel;
        //nCellsInCoarsestLevel 1;
    };

    ph_rgh
    {
        $p_rgh;
    }

    "(U|Yi|h|k)"
    {
        solver          PBiCGStab;
        preconditioner  DILU;
        tolerance       1e-8;
        relTol          0.1;
    };

    "(U|Yi|h|k)Final"
    {
        $U;
        relTol          0;
    };

    Ii
    {
        solver          GAMG;
        tolerance       1e-8;
        relTol          0;
        smoother        DILU;
        maxIter         20;
        minIter         1;
    }
}

PIMPLE
{
    momentumPredictor yes;
    nOuterCorrectors  1; //8
    nCorrectors       1; //1
    nNonOrthogonalCorrectors 0;

    hydrostaticInitialization no;
    nHydrostaticCorrectors 10;
    residualControl
    {
        "(U|h|C2H4)"
        {
            relTol          0;
            tolerance       1e-8;
        }
    }
}

relaxationFactors
{
    equations
    {
        "(U|k).*"                   0.8;
        //"T.*"                   0.8;
        //"rho.*"                   0.8;
        "(C2H4|C3H8|O2|H2O|CO2|CH4).*"     0.8;
        h 0.8;
        ".*Final"                   1.0;
//"ILamb.*"                   0.999;
//"ILamb.*Final"                   0.999;
    }
    fields
    {
        p_rgh               0.5;
        p_rghFinal            1;
        "p.*"                   0.5;
        ".*Final"                   1.0;
    }
}


// ************************************************************************* //
